  18

 C         -4.6280316500       -0.4347662400       -0.0848464700
 C         -3.2328716500       -0.4347662400       -0.0848464700
 C         -2.5353336500        0.7729847600       -0.0848464700
 C         -3.2329876500        1.9814937600       -0.0860454700
 C         -4.6278126500        1.9814157600       -0.0865244700
 C         -5.3254136500        0.7732097600       -0.0855284700
 H         -4.9442265000       -0.9829019700       -0.9476720900
 H         -2.9167191700       -0.9824536700        0.7782792900
 H         -1.9037057500        0.7733501000        0.7788352200
 H         -2.9171011600        2.5298279100        0.7767670100
 H         -4.9443083600        2.5299529100        0.7759356500
 H         -5.9579846900        0.7726273500       -0.9485195100
 H         -4.9437154400        2.5281875100       -0.9503219600
 H         -2.9165082500        2.5284574900       -0.9495102800
 H         -1.9022226900        0.7724935600       -0.9474415600
 H         -2.9167191700       -0.9824536700       -0.9479722400
 H         -4.9442265000       -0.9819273500        0.7785975200
 H         -5.9575963200        0.7738261700        0.7777470800
